0, 100.00 / Sample PSSE case
BUS DATA FOLLOWS
1,'BUS 1',138.0,1,0,0,1,1,1.0,0.0,0.0,1,0,1,1,0,0,0,0
2,'BUS 2',138.0,1,0,0,1,1,1.0,0.0,0.0,1,0,1,1,0,0,0,0
END OF BUS DATA
BRANCH DATA FOLLOWS
1,2,1,0.01,0.1,0,100,100,100,0,1,1,1,0,0,0,0,0,0,0
END OF BRANCH DATA
